<edges>
    <edge id="edge1" from="junction1" to="junction2" priority="1" numLanes="1" speed="13.9"/>
</edges>
