<?xml version="1.0" encoding="UTF-8"?>

<!-- generated on 2024-11-29 22:01:00 by Eclipse SUMO netconvert Version 1.20.0
<configuration xmlns:xsi="http://www.w3.org/2001/XMLSchema-instance" xsi:noNamespaceSchemaLocation="http://sumo.dlr.de/xsd/netconvertConfiguration.xsd">

    <input>
        <node-files value="C:/Users/onurd/OneDrive/Masaüstü/PhD/codingPractices/progress-report-dec-2024/data/simple_sumo_example/simple_network.nod.xml"/>
        <edge-files value="C:/Users/onurd/OneDrive/Masaüstü/PhD/codingPractices/progress-report-dec-2024/data/simple_sumo_example/simple_network.edg.xml"/>
    </input>

    <output>
        <output-file value="C:/Users/onurd/OneDrive/Masaüstü/PhD/codingPractices/progress-report-dec-2024/data/simple_sumo_example/simple_network.net.xml"/>
    </output>

</configuration>
-->

<net version="1.20" junctionCornerDetail="5" limitTurnSpeed="5.50" xmlns:xsi="http://www.w3.org/2001/XMLSchema-instance" xsi:noNamespaceSchemaLocation="http://sumo.dlr.de/xsd/net_file.xsd">

    <location netOffset="0.00,0.00" convBoundary="0.00,0.00,500.00,0.00" origBoundary="0.00,0.00,500.00,0.00" projParameter="!"/>

    <edge id="edge1" from="junction1" to="junction2" priority="1">
        <lane id="edge1_0" index="0" speed="13.90" length="500.00" shape="0.00,-1.60 500.00,-1.60"/>
    </edge>

    <junction id="junction1" type="dead_end" x="0.00" y="0.00" incLanes="" intLanes="" shape="0.00,0.00 0.00,-3.20"/>
    <junction id="junction2" type="dead_end" x="500.00" y="0.00" incLanes="edge1_0" intLanes="" shape="500.00,-3.20 500.00,0.00"/>

</net>
