<?xml version="1.0" encoding="UTF-8"?>
<routes xmlns:xsi="http://www.w3.org/2001/XMLSchema-instance" xsi:noNamespaceSchemaLocation="http://sumo.dlr.de/xsd/routes_file.xsd">
    <vType id="car" accel="2.6" decel="4.5" sigma="0.5" length="5.0" maxSpeed="13.9" color="red"/>
    <route id="route0" edges="edge1"/>
    <vehicle id="vehicle_0" type="car" route="route0" depart="0"/>
    <vehicle id="vehicle_1" type="car" route="route0" depart="5"/>
    <vehicle id="vehicle_2" type="car" route="route0" depart="10"/>
</routes>
