<configuration>
    <input>
        <net-file>C:/Users/onurd/OneDrive/Masa端st端/PhD/codingPractices/progress-report-dec-2024/data/simple_sumo_example/simple_network.net.xml</net-file>
        <route-files>C:/Users/onurd/OneDrive/Masa端st端/PhD/codingPractices/progress-report-dec-2024/data/simple_sumo_example/simple_routes.rou.xml</route-files>
    </input>
    <time>
        <begin>0</begin>
        <end>100</end>
    </time>
    <output>
        <tripinfo-output>../../outputs/tripinfo.xml</tripinfo-output>
    </output>
</configuration>
